/*--------------------------------*- C++ -*----------------------------------*\
| =========                 |                                                 |
| \\      /  F ield         | OpenFOAM: The Open Source CFD Toolbox           |
|  \\    /   O peration     | Version:  5                                     |
|   \\  /    A nd           | Web:      www.OpenFOAM.org                      |
|    \\/     M anipulation  |                                                 |
\*---------------------------------------------------------------------------*/
FoamFile
{
    version     2.0;
    format      ascii;
    class       dictionary;
    location    "system";
    object      fvSchemes;
}
// * * * * * * * * * * * * * * * * * * * * * * * * * * * * * * * * * * * * * //

ddtSchemes
{
    default         Euler;
}

gradSchemes
{
    default         none;
    grad(p)         Gauss linear;
    grad(T)         Gauss linear;
    grad(Cca)       Gauss linear;
    grad(Cso4)       Gauss linear;
}

divSchemes
{
    default         none;
    div(phi,T)      Gauss vanLeer;
    div((phi*interpolate(Cp)),T) Gauss vanLeer;
    div(phiChemical,Cca) Gauss vanLeer;
    div(phiChemical,Cso4) Gauss vanLeer;
}

laplacianSchemes
{
    default         none;
    laplacian(kr,T) Gauss linear corrected;
    laplacian(rhorAUf,p) Gauss linear corrected;
    laplacian(Dc_,Cca) Gauss linear corrected;
    laplacian(Dc_,Cso4) Gauss linear corrected;
}

interpolationSchemes
{
    default         linear;
}

snGradSchemes
{
    default         corrected;
}

fluxRequired
{
    default no;
    p;
}

// ************************************************************************* //
