/*--------------------------------*- C++ -*----------------------------------*\
| =========                 |                                                 |
| \\      /  F ield         | OpenFOAM: The Open Source CFD Toolbox           |
|  \\    /   O peration     | Version:  5                                     |
|   \\  /    A nd           | Web:      www.OpenFOAM.org                      |
|    \\/     M anipulation  |                                                 |
\*---------------------------------------------------------------------------*/
FoamFile
{
    version     2.0;
    format      ascii;
    class       dictionary;
    object      controlDict;
}

application HydrothermalSinglePhaseDarcyFoam;
startFrom latestTime;
startTime 0;
stopAt endTime;
endTime 157680000000;
deltaT 864000;
adjustTimeStep yes;
maxCo           0.8; 
maxDeltaT       86400000; 
writeControl adjustableRunTime;
writeInterval 86400000;
purgeWrite 0;
writeFormat ascii;
writePrecision 6;
writeCompression off;
timeFormat general;
timePrecision 14;
runTimeModifiable true;
libs 
( 
    "libHydrothermalBoundaryConditions.so"
    "libHydroThermoPhysicalModels.so"
);

functions
{
    calPlumeT
    {
        libs                ("libutilityFunctionObjects.so");
        type                coded;
        enabled             true;
        writeControl        adjustableRunTime;
        writeInterval       $writeInterval;
        name                plumeTemperature;
        codeWrite
        #{
            //get maximum tempeature on the top boundary
            label patchID = mesh().boundaryMesh().findPatchID("top"); 
            const volScalarField& T = mesh().lookupObject<volScalarField>("T");
            const volScalarField& mu = mesh().lookupObject<volScalarField>("mu");
            const volScalarField& Cp = mesh().lookupObject<volScalarField>("Cp");
            const volScalarField& rho = mesh().lookupObject<volScalarField>("rho");
            const surfaceScalarField& phi = mesh().lookupObject<surfaceScalarField>("phi");
            const volScalarField& h = mesh().lookupObject<volScalarField>("enthalpy");
            double kr = 2.0;
            // calculate local Rayleigh number 
            volScalarField Ra_L("LocalRayleigh",mag(fvc::div(phi, h) / (kr*fvc::laplacian(T))));
            // write properties to output files
            mu.write(); Cp.write(); h.write(); Ra_L.write();
            // write vent temperature
            std::ofstream fout("ventT.txt",std::ofstream::app);
            // Info<<"Plume Temperature: "<<mesh().time().value()/31536000<<"\t"<<Foam::gMax(T.boundaryField()[patchID])-273.15<<" C"<<endl;
            fout<<mesh().time().value()/31536000<<"\t"<<Foam::gMax(T.boundaryField()[patchID])-273.15<<std::endl;
            fout.close();
        #};
    }
}
