/*--------------------------------*- C++ -*----------------------------------*\
| =========                 |                                                 |
| \\      /  F ield         | OpenFOAM: The Open Source CFD Toolbox           |
|  \\    /   O peration     | Version:  5                                     |
|   \\  /    A nd           | Web:      www.OpenFOAM.org                      |
|    \\/     M anipulation  |                                                 |
\*---------------------------------------------------------------------------*/
FoamFile
{
    version     2.0;
    format      ascii;
    class       volScalarField;
    object      T;
}
// * * * * * * * * * * * * * * * * * * * * * * * * * * * * * * * * * * * * * //

dimensions      [0 0 0 1 0 0 0];

internalField   uniform 278.15; 

boundaryField
{
    left
    {
        type            zeroGradient;
    }
    right
    {
        type            zeroGradient;
    }
    top
    {
        type            inletOutlet;
        phi                     phi;
        inletValue      uniform 278.15;
    }
    bottom
    {
        type            codedFixedValue;
        value           uniform 873.15; 
        name            gaussShapeT;
        code            #{
                            scalarField x(this->patch().Cf().component(0)); 
                            double wGauss=500;
                            double xigma = wGauss/2.355;
                            double x0=0;
                            double Tmin=283.15;
                            double Tmax=1073.15;
                            scalarField T(Tmin+(Tmax-Tmin)*exp(-(x-x0)*(x-x0)/(2*xigma*xigma)));
                            operator==(T);
                        #};
    }
    frontAndBack
    {
        type            empty;
    }
}

// ************************************************************************* //
