/*--------------------------------*- C++ -*----------------------------------*\
| =========                 |                                                 |
| \\      /  F ield         | OpenFOAM: The Open Source CFD Toolbox           |
|  \\    /   O peration     | Version:  5                                     |
|   \\  /    A nd           | Web:      www.OpenFOAM.org                      |
|    \\/     M anipulation  |                                                 |
\*---------------------------------------------------------------------------*/
FoamFile
{
    version     2.0;
    format      ascii;
    class       volScalarField;
    object      T;
}
// * * * * * * * * * * * * * * * * * * * * * * * * * * * * * * * * * * * * * //

dimensions      [0 0 0 1 0 0 0];

internalField   uniform 278.15;

boundaryField
{
    sidewalls
    {
        type            zeroGradient;
    }
    seafloor
    {
        type            inletOutlet;
        phi                     phi;
        inletValue      uniform 278.15;
    }
    bottom
    {
        type            zeroGradient;
    }
}

// ************************************************************************* //
