/*--------------------------------*- C++ -*----------------------------------*\
| =========                 |                                                 |
| \\      /  F ield         | OpenFOAM: The Open Source CFD Toolbox           |
|  \\    /   O peration     | Version:  5.x                                   |
|   \\  /    A nd           | Web:      www.OpenFOAM.org                      |
|    \\/     M anipulation  |                                                 |
\*---------------------------------------------------------------------------*/
FoamFile
{
    version     2.0;
    format      ascii;
    class       dictionary;
    object      extrudeMeshDict;
}
// * * * * * * * * * * * * * * * * * * * * * * * * * * * * * * * * * * * * * //

constructFrom patch;

sourceCase ".";
sourcePatches (back);
exposedPatchName front;

flipNormals false;

extrudeModel        linearNormal;
nLayers             1;
linearNormalCoeffs
{
    thickness       100;
}

mergeFaces false;   //true;

// * * * * * * * * * * * * * * * * * * * * * * * * * * * * * * * * * * * * * //
