/*--------------------------------*- C++ -*----------------------------------*\
| =========                 |                                                 |
| \\      /  F ield         | OpenFOAM: The Open Source CFD Toolbox           |
|  \\    /   O peration     | Version:  5                                     |
|   \\  /    A nd           | Web:      www.OpenFOAM.org                      |
|    \\/     M anipulation  |                                                 |
\*---------------------------------------------------------------------------*/
FoamFile
{
    version     2.0;
    format      ascii;
    class       volScalarField;
    object      T;
}
// * * * * * * * * * * * * * * * * * * * * * * * * * * * * * * * * * * * * * //

dimensions      [0 0 0 1 0 0 0];

internalField   uniform 278.15; 

boundaryField
{
    left
    {
        type            zeroGradient;
    }
    right
    {
        type            zeroGradient;
    }
    top
    {
        type            inletOutlet;
        phi                     phi;
        inletValue      uniform 278.15;
    }
    bottom
    {
        type        hydrothermalHeatFlux;
        q           uniform 0.05; //placeholder
        value       uniform 0; //placeholder
        shape       gaussian2d;
        x0          1500;
        qmax        80.8;
        qmin        0;
        c           424.661;
    }
    frontAndBack
    {
        type            empty;
    }
}

// ************************************************************************* //
