/*--------------------------------*- C++ -*----------------------------------*\
| =========                 |                                                 |
| \\      /  F ield         | OpenFOAM: The Open Source CFD Toolbox           |
|  \\    /   O peration     | Version:  5                                     |
|   \\  /    A nd           | Web:      www.OpenFOAM.org                      |
|    \\/     M anipulation  |                                                 |
\*---------------------------------------------------------------------------*/
FoamFile
{
    version     2.0;
    format      ascii;
    class       dictionary;
    object      blockMeshDict;
}
// * * * * * * * * * * * * * * * * * * * * * * * * * * * * * * * * * * * * * //

xmin 0;  
xmax 3000;
ymin -1000;
ymax 0;
Lz 1;
vertices 
(
    ($xmin      $ymin   0)  //coordinate of vertex 0
    ($xmax    $ymin   0)  //coordinate of vertex 1
    ($xmax    $ymax   0)  //coordinate of vertex 2
    ($xmin      $ymax   0)  //coordinate of vertex 3
    ($xmin      $ymin   $Lz)//coordinate of vertex 4
    ($xmax    $ymin   $Lz)//coordinate of vertex 5
    ($xmax    $ymax   $Lz)//coordinate of vertex 6
    ($xmin      $ymax   $Lz)//coordinate of vertex 7
);
blocks
(
    hex (0 1 2 3 4 5 6 7) (150 50 1) simpleGrading (1 1 1)
);
boundary
(
    left  
    {
        type patch ;
        faces 
        (
            (0 4 7 3)
        );
    }
    right
    {
        type patch;
        faces
        (
            (2 6 5 1)
        );
    }
    top
    {
        type patch;
        faces
        (
            (3 7 6 2)
        );
    }
    bottom
    {
        type patch;
        faces
        (
            (1 5 4 0)
        );
    }
    frontAndBack 
    {
        type empty; 
        faces 
        (
            (0 3 2 1)  
            (4 5 6 7)  
        );
    }
);
// ************************************************************************* //
