/*--------------------------------*- C++ -*----------------------------------*\
  =========                 |
  \\      /  F ield         | OpenFOAM: The Open Source CFD Toolbox
   \\    /   O peration     | Website:  https://openfoam.org
    \\  /    A nd           | Version:  7
     \\/     M anipulation  |
\*---------------------------------------------------------------------------*/
FoamFile
{
    version     2.0;
    format      ascii;
    class       volScalarField;
    location    "0";
    object      T;
}
// * * * * * * * * * * * * * * * * * * * * * * * * * * * * * * * * * * * * * //

dimensions      [0 0 0 1 0 0 0];

internalField   uniform 273;

boundaryField
{
    frontAndBack
    {
        type            empty;
    }
    top
    {
        type            zeroGradient;
    }
    right
    {
        type            fixedValue;
        value           uniform 573;
    }
    bottom
    {
        type            zeroGradient;
    }
    left
    {
        type            fixedValue;
        value           uniform 273;
    }
}


// ************************************************************************* //
